dssfiles/Lineas_LineCode.dss
New Linecode.BT_1/0 AAAC_AAAC_1/0_1 nphases=2
~ rmatrix = [ 0.1971  0.194803 | 0.194803  0.192543 ]  
~ xmatrix = [ 0.1971  0.194803 | 0.194803  0.192543 ]  
~ Normamps=205
~ kron=y 

New Linecode.BT_1/0 AAAC_AAAC_1/0_3 nphases=2
~ rmatrix = [ 0.712091386  0.059216675  0.059216675 | 0.059216675  0.712091386  0.059216675 | 0.059216675  0.059216675  697364889.0 ]  
~ xmatrix = [ 0.712091386  0.059216675  0.059216675 | 0.059216675  0.712091386  0.059216675 | 0.059216675  0.059216675  697364889.0 ]  
~ Normamps=205
~ kron=y 

New Linecode.BT_1/0 AAAC_AAAC_1/0_4 nphases=3
~ rmatrix = [ 0.712091386  0.059216675  0.059216675  0.059216675 | 0.059216675  0.712091386  0.059216675  0.059216675 | 0.059216675  0.059216675  0.697364889  0.059216675 | 0.059216675  0.059216675  0.059216675  0.697364889 ]  
~ xmatrix = [ 0.712091386  0.059216675  0.059216675  0.059216675 | 0.059216675  0.712091386  0.059216675  0.059216675 | 0.059216675  0.059216675  0.697364889  0.059216675 | 0.059216675  0.059216675  0.059216675  0.697364889 ]  
~ Normamps=205
~ kron=y 

New Linecode.BT_1/0 AAAC_AAAC_123.3_1 nphases=2
~ rmatrix = [ 0.172111  0.170071 | 0.170071  0.168067 ]  
~ xmatrix = [ 0.172111  0.170071 | 0.170071  0.168067 ]  
~ Normamps=205
~ kron=y 

New Linecode.BT_1/0 AAAC_AAAC_123.3_3 nphases=2
~ rmatrix = [ 0.71224363  0.059229335  0.059229335 | 0.059229335  0.71224363  0.059229335 | 0.059229335  0.059229335  0.697513984 ]  
~ xmatrix = [ 0.71224363  0.059229335  0.059229335 | 0.059229335  0.71224363  0.059229335 | 0.059229335  0.059229335  0.697513984 ]  
~ Normamps=205
~ kron=y 

New Linecode.BT_1/0 AAAC_AAAC_2_1 nphases=2
~ rmatrix = [ 0.1971  0.194803 | 0.194803  0.192543 ]  
~ xmatrix = [ 0.1971  0.194803 | 0.194803  0.192543 ]  
~ Normamps=205
~ kron=y 

New Linecode.BT_1/0 AAAC_AAAC_2_3 nphases=2
~ rmatrix = [ 0.71224363  0.059229335  0.059229335 | 0.059229335  0.71224363  0.059229335 | 0.059229335  0.059229335  0.697513984 ]  
~ xmatrix = [ 0.71224363  0.059229335  0.059229335 | 0.059229335  0.71224363  0.059229335 | 0.059229335  0.059229335  0.697513984 ]  
~ Normamps=205
~ kron=y 

New Linecode.BT_1/0 AAAC_AAAC_2_6 nphases=2
~ rmatrix = [ 1844308224.0  0.1533704832  0.1533704832 | 0.1533704832  1844308224.0  0.1533704832 | 0.1533704832  0.1533704832  18061667712.0 ]  
~ xmatrix = [ 1844308224.0  0.1533704832  0.1533704832 | 0.1533704832  1844308224.0  0.1533704832 | 0.1533704832  0.1533704832  18061667712.0 ]  
~ Normamps=205
~ kron=y 

New Linecode.BT_1/0 AAAC_AAAC_6_3 nphases=2
~ rmatrix = [ 0.71224363  0.059229335  0.059229335 | 0.059229335  0.71224363  0.059229335 | 0.059229335  0.059229335  0.697513984 ]  
~ xmatrix = [ 0.71224363  0.059229335  0.059229335 | 0.059229335  0.71224363  0.059229335 | 0.059229335  0.059229335  0.697513984 ]  
~ Normamps=205
~ kron=y 

New Linecode.BT_1/0 AAAC_ACSR_1/0_1 nphases=2
~ rmatrix = [ 0.159397  0.157563 | 0.157563  0.155761 ]  
~ xmatrix = [ 0.159397  0.157563 | 0.157563  0.155761 ]  
~ Normamps=205
~ kron=y 

New Linecode.BT_1/0 AAAC_ACSR_1/0_3 nphases=2
~ rmatrix = [ 0.71224363  0.059229335  0.059229335 | 0.059229335  0.71224363  0.059229335 | 0.059229335  0.059229335  0.697513984 ]  
~ xmatrix = [ 0.71224363  0.059229335  0.059229335 | 0.059229335  0.71224363  0.059229335 | 0.059229335  0.059229335  0.697513984 ]  
~ Normamps=205
~ kron=y 

New Linecode.BT_1/0 AAAC_ACSR_2_1 nphases=2
~ rmatrix = [ 0.18876  0.186603 | 0.186603  0.18448 ]  
~ xmatrix = [ 0.18876  0.186603 | 0.186603  0.18448 ]  
~ Normamps=205
~ kron=y 

New Linecode.BT_1/0 AAAC_ACSR_2_3 nphases=2
~ rmatrix = [ 0.71224363  0.059229335  0.059229335 | 0.059229335  0.71224363  0.059229335 | 0.059229335  0.059229335  0.697513984 ]  
~ xmatrix = [ 0.71224363  0.059229335  0.059229335 | 0.059229335  0.71224363  0.059229335 | 0.059229335  0.059229335  0.697513984 ]  
~ Normamps=205
~ kron=y 

New Linecode.BT_1/0 AAAC_ACSR_6_1 nphases=2
~ rmatrix = [ 0.7601  0.16622 | 0.16622  0.756766 ]  
~ xmatrix = [ 0.7601  0.16622 | 0.16622  0.756766 ]  
~ Normamps=205
~ kron=y 

New Linecode.BT_1/0 AAAC_ACSR_6_3 nphases=2
~ rmatrix = [ 0.71224363  0.059229335  0.059229335 | 0.059229335  0.71224363  0.059229335 | 0.059229335  0.059229335  0.697513984 ]  
~ xmatrix = [ 0.71224363  0.059229335  0.059229335 | 0.059229335  0.71224363  0.059229335 | 0.059229335  0.059229335  0.697513984 ]  
~ Normamps=205
~ kron=y 

New Linecode.BT_1/0 AAAC_CO_TR_1/0_1 nphases=2
~ rmatrix = [ 0.719415  0.12575 | 0.12575  0.716513 ]  
~ xmatrix = [ 0.719415  0.12575 | 0.12575  0.716513 ]  
~ Normamps=205
~ kron=y 

New Linecode.BT_1/0 AAAC_NE_NE_1 nphases=2
~ rmatrix = [ 0.1971  0.194803 | 0.194803  0.192543 ]  
~ xmatrix = [ 0.1971  0.194803 | 0.194803  0.192543 ]  
~ Normamps=205
~ kron=y 

New Linecode.BT_1/0 AAC_AAAC_2_3 nphases=2
~ rmatrix = [ 0.71224363  0.059229335  0.059229335 | 0.059229335  0.71224363  0.059229335 | 0.059229335  0.059229335  0.697513984 ]  
~ xmatrix = [ 0.71224363  0.059229335  0.059229335 | 0.059229335  0.71224363  0.059229335 | 0.059229335  0.059229335  0.697513984 ]  
~ Normamps=180
~ kron=y 

New Linecode.BT_1/0 AAC_AAAC_246.9_1 nphases=2
~ rmatrix = [ 0.659721  0.097439 | 0.097439  0.657572 ]  
~ xmatrix = [ 0.659721  0.097439 | 0.097439  0.657572 ]  
~ Normamps=180
~ kron=y 

New Linecode.BT_1/0 AAC_ACSR_1/0_3 nphases=2
~ rmatrix = [ 0.71224363  0.059229335  0.059229335 | 0.059229335  0.71224363  0.059229335 | 0.059229335  0.059229335  0.71224363 ]  
~ xmatrix = [ 0.71224363  0.059229335  0.059229335 | 0.059229335  0.71224363  0.059229335 | 0.059229335  0.059229335  0.71224363 ]  
~ Normamps=247
~ kron=y 

New Linecode.BT_1/0 AAC_ACSR_2_1 nphases=2
~ rmatrix = [ 0.749956  0.186603 | 0.186603  0.745676 ]  
~ xmatrix = [ 0.749956  0.186603 | 0.186603  0.745676 ]  
~ Normamps=247
~ kron=y 

New Linecode.BT_1/0 AAC_ACSR_6_1 nphases=2
~ rmatrix = [ 0.729096  0.16622 | 0.16622  0.725762 ]  
~ xmatrix = [ 0.729096  0.16622 | 0.16622  0.725762 ]  
~ Normamps=247
~ kron=y 

New Linecode.BT_1/0 AAC_ACSR_6_3 nphases=2
~ rmatrix = [ 0.71224363  0.059229335  0.059229335 | 0.059229335  0.71224363  0.059229335 | 0.059229335  0.059229335  0.71224363 ]  
~ xmatrix = [ 0.71224363  0.059229335  0.059229335 | 0.059229335  0.71224363  0.059229335 | 0.059229335  0.059229335  0.71224363 ]  
~ Normamps=247
~ kron=y 

New Linecode.BT_1/0 AAC_ACSR_6_6 nphases=2
~ rmatrix = [ 0.71224363  0.059229335  0.059229335 | 0.059229335  0.71224363  0.059229335 | 0.059229335  0.059229335  0.71224363 ]  
~ xmatrix = [ 0.71224363  0.059229335  0.059229335 | 0.059229335  0.71224363  0.059229335 | 0.059229335  0.059229335  0.71224363 ]  
~ Normamps=247
~ kron=y 

New Linecode.BT_1/0 AAC_ACSR_8_6 nphases=2
~ rmatrix = [ 0.71224363  0.059229335  0.059229335 | 0.059229335  0.71224363  0.059229335 | 0.059229335  0.059229335  0.764760721 ]  
~ xmatrix = [ 0.71224363  0.059229335  0.059229335 | 0.059229335  0.71224363  0.059229335 | 0.059229335  0.059229335  0.764760721 ]  
~ Normamps=247
~ kron=y 

New Linecode.BT_1/0 ACSR_AAAC_1/0_1 nphases=2
~ rmatrix = [ 0.757104  0.174279 | 0.174279  0.752958 ]  
~ xmatrix = [ 0.757104  0.174279 | 0.174279  0.752958 ]  
~ Normamps=242
~ kron=y 

New Linecode.BT_1/0 ACSR_AAAC_123.3_1 nphases=2
~ rmatrix = [ 0.752844  0.170071 | 0.170071  0.7488 ]  
~ xmatrix = [ 0.752844  0.170071 | 0.170071  0.7488 ]  
~ Normamps=242
~ kron=y 

New Linecode.BT_1/0 ACSR_AAAC_2_1 nphases=2
~ rmatrix = [ 0.777834  0.194803 | 0.194803  0.773276 ]  
~ xmatrix = [ 0.777834  0.194803 | 0.194803  0.773276 ]  
~ Normamps=242
~ kron=y 

New Linecode.BT_1/0 ACSR_AAAC_246.9_1 nphases=2
~ rmatrix = [ 0.679259  0.097439 | 0.097439  0.677109 ]  
~ xmatrix = [ 0.679259  0.097439 | 0.097439  0.677109 ]  
~ Normamps=242
~ kron=y 

New Linecode.BT_1/0 ACSR_ACSR_1/0_1 nphases=2
~ rmatrix = [ 0.740131  0.157563 | 0.157563  0.736494 ]  
~ xmatrix = [ 0.740131  0.157563 | 0.157563  0.736494 ]  
~ Normamps=242
~ kron=y 

New Linecode.BT_1/0 ACSR_ACSR_1/0_3 nphases=2
~ rmatrix = [ 0.71224363  0.059229335  0.059229335 | 0.059229335  0.71224363  0.059229335 | 0.059229335  0.059229335  0.764760721 ]  
~ xmatrix = [ 0.71224363  0.059229335  0.059229335 | 0.059229335  0.71224363  0.059229335 | 0.059229335  0.059229335  0.764760721 ]  
~ Normamps=242
~ kron=y 

New Linecode.BT_1/0 ACSR_ACSR_1/0_4 nphases=3
~ rmatrix = [ 1844308224.0  0.1533704832  0.1533704832  0.1533704832 | 0.1533704832  1844308224.0  0.1533704832  0.1533704832 | 0.1533704832  0.1533704832  19888273152.0  0.1533704832 | 0.1533704832  0.1533704832  0.1533704832  19888273152.0 ]  
~ xmatrix = [ 1844308224.0  0.1533704832  0.1533704832  0.1533704832 | 0.1533704832  1844308224.0  0.1533704832  0.1533704832 | 0.1533704832  0.1533704832  19888273152.0  0.1533704832 | 0.1533704832  0.1533704832  0.1533704832  19888273152.0 ]  
~ Normamps=242
~ kron=y 

New Linecode.BT_1/0 ACSR_ACSR_1/0_6 nphases=2
~ rmatrix = [ 0.71224363  0.059229335  0.059229335 | 0.059229335  0.71224363  0.059229335 | 0.059229335  0.059229335  0.764760721 ]  
~ xmatrix = [ 0.71224363  0.059229335  0.059229335 | 0.059229335  0.71224363  0.059229335 | 0.059229335  0.059229335  0.764760721 ]  
~ Normamps=242
~ kron=y 

New Linecode.BT_1/0 ACSR_ACSR_123.3_1 nphases=2
~ rmatrix = [ 0.769494  0.186603 | 0.186603  0.765214 ]  
~ xmatrix = [ 0.769494  0.186603 | 0.186603  0.765214 ]  
~ Normamps=242
~ kron=y 

New Linecode.BT_1/0 ACSR_ACSR_2/0_1 nphases=2
~ rmatrix = [ 0.722245  0.1399 | 0.1399  0.71905 ]  
~ xmatrix = [ 0.722245  0.1399 | 0.1399  0.71905 ]  
~ Normamps=242
~ kron=y 

New Linecode.BT_1/0 ACSR_ACSR_2_1 nphases=2
~ rmatrix = [ 0.769494  0.186603 | 0.186603  0.765214 ]  
~ xmatrix = [ 0.769494  0.186603 | 0.186603  0.765214 ]  
~ Normamps=242
~ kron=y 

New Linecode.BT_1/0 ACSR_ACSR_2_3 nphases=2
~ rmatrix = [ 0.71224363  0.059229335  0.059229335 | 0.059229335  0.71224363  0.059229335 | 0.059229335  0.059229335  0.764760721 ]  
~ xmatrix = [ 0.71224363  0.059229335  0.059229335 | 0.059229335  0.71224363  0.059229335 | 0.059229335  0.059229335  0.764760721 ]  
~ Normamps=242
~ kron=y 

New Linecode.BT_1/0 ACSR_ACSR_2_4 nphases=3
~ rmatrix = [ 0.7122  0.059229  0.059229  0.059229 | 0.059229  0.7122  0.059229  0.059229 | 0.059229  0.059229  0.76805  0.059229 | 0.059229  0.059229  0.059229  0.76805 ]  
~ xmatrix = [ 0.7122  0.059229  0.059229  0.059229 | 0.059229  0.7122  0.059229  0.059229 | 0.059229  0.059229  0.76805  0.059229 | 0.059229  0.059229  0.059229  0.76805 ]  
~ Normamps=242
~ kron=y 

New Linecode.BT_1/0 ACSR_ACSR_2_6 nphases=2
~ rmatrix = [ 0.71224363  0.059229335  0.059229335 | 0.059229335  0.71224363  0.059229335 | 0.059229335  0.059229335  0.764760721 ]  
~ xmatrix = [ 0.71224363  0.059229335  0.059229335 | 0.059229335  0.71224363  0.059229335 | 0.059229335  0.059229335  0.764760721 ]  
~ Normamps=242
~ kron=y 

New Linecode.BT_1/0 ACSR_ACSR_6_1 nphases=2
~ rmatrix = [ 0.748633  0.16622 | 0.16622  0.7453 ]  
~ xmatrix = [ 0.748633  0.16622 | 0.16622  0.7453 ]  
~ Normamps=242
~ kron=y 

New Linecode.BT_1/0 ACSR_ACSR_6_3 nphases=2
~ rmatrix = [ 0.71224363  0.059229335  0.059229335 | 0.059229335  0.71224363  0.059229335 | 0.059229335  0.059229335  0.764760721 ]  
~ xmatrix = [ 0.71224363  0.059229335  0.059229335 | 0.059229335  0.71224363  0.059229335 | 0.059229335  0.059229335  0.764760721 ]  
~ Normamps=242
~ kron=y 

New Linecode.BT_1/0 ACSR_ACSR_6_6 nphases=2
~ rmatrix = [ 0.71224363  0.059229335  0.059229335 | 0.059229335  0.71224363  0.059229335 | 0.059229335  0.059229335  0.764760721 ]  
~ xmatrix = [ 0.71224363  0.059229335  0.059229335 | 0.059229335  0.71224363  0.059229335 | 0.059229335  0.059229335  0.764760721 ]  
~ Normamps=242
~ kron=y 

New Linecode.BT_1/0 ACSR_ACSR_8_1 nphases=2
~ rmatrix = [ 0.718114  0.136196 | 0.136196  0.715763 ]  
~ xmatrix = [ 0.718114  0.136196 | 0.136196  0.715763 ]  
~ Normamps=242
~ kron=y 

New Linecode.BT_1/0 ACSR_CO_TR_1/0_1 nphases=2
~ rmatrix = [ 0.706773  0.124597 | 0.124597  0.703914 ]  
~ xmatrix = [ 0.706773  0.124597 | 0.124597  0.703914 ]  
~ Normamps=242
~ kron=y 

New Linecode.BT_1/0 ACSR_CO_TR_1/0_3 nphases=2
~ rmatrix = [ 0.71224363  0.059229335  0.059229335 | 0.059229335  0.71224363  0.059229335 | 0.059229335  0.059229335  0.764760721 ]  
~ xmatrix = [ 0.71224363  0.059229335  0.059229335 | 0.059229335  0.71224363  0.059229335 | 0.059229335  0.059229335  0.764760721 ]  
~ Normamps=242
~ kron=y 

New Linecode.BT_1/0 ACSR_NE_NE_1 nphases=2
~ rmatrix = [ 0.159397  0.157563 | 0.157563  0.155761 ]  
~ xmatrix = [ 0.159397  0.157563 | 0.157563  0.155761 ]  
~ Normamps=242
~ kron=y 

New Linecode.BT_1/0 CO_SO_ACSR_2_1 nphases=2
~ rmatrix = [ 0.52896  0.186603 | 0.186603  0.52896 ]  
~ xmatrix = [ 0.52896  0.186603 | 0.186603  0.52896 ]  
~ Normamps=310
~ kron=y 

New Linecode.BT_1/0 CO_TR_AAAC_2_1 nphases=2
~ rmatrix = [ 0.53179  0.186603 | 0.186603  0.52751 ]  
~ xmatrix = [ 0.53179  0.186603 | 0.186603  0.52751 ]  
~ Normamps=265
~ kron=y 

New Linecode.BT_1/0 CO_TR_AAAC_6_6 nphases=2
~ rmatrix = [ 0.388067122  0.059229335  0.059229335 | 0.059229335  0.388067122  0.059229335 | 0.059229335  0.059229335  0.388067122 ]  
~ xmatrix = [ 0.388067122  0.059229335  0.059229335 | 0.059229335  0.388067122  0.059229335 | 0.059229335  0.059229335  0.388067122 ]  
~ Normamps=265
~ kron=y 

New Linecode.BT_1/0 CO_TR_ACSR_1/0_3 nphases=2
~ rmatrix = [ 0.388067122  0.059229335  0.059229335 | 0.059229335  0.388067122  0.059229335 | 0.059229335  0.059229335  0.388067122 ]  
~ xmatrix = [ 0.388067122  0.059229335  0.059229335 | 0.059229335  0.388067122  0.059229335 | 0.059229335  0.059229335  0.388067122 ]  
~ Normamps=265
~ kron=y 

New Linecode.BT_1/0 CO_TR_ACSR_123.3_1 nphases=2
~ rmatrix = [ 0.388067122  0.059229335  0.059229335 | 0.059229335  0.388067122  0.059229335 | 0.059229335  0.059229335  0.388067122 ]  
~ xmatrix = [ 0.388067122  0.059229335  0.059229335 | 0.059229335  0.388067122  0.059229335 | 0.059229335  0.059229335  0.388067122 ]  
~ Normamps=265
~ kron=y 

New Linecode.BT_1/0 CO_TR_ACSR_2_1 nphases=2
~ rmatrix = [ 0.53179  0.186603 | 0.186603  0.52751 ]  
~ xmatrix = [ 0.53179  0.186603 | 0.186603  0.52751 ]  
~ Normamps=265
~ kron=y 

New Linecode.BT_1/0 CO_TR_ACSR_2_3 nphases=2
~ rmatrix = [ 0.388067122  0.059229335  0.059229335 | 0.059229335  0.388067122  0.059229335 | 0.059229335  0.059229335  0.388067122 ]  
~ xmatrix = [ 0.388067122  0.059229335  0.059229335 | 0.059229335  0.388067122  0.059229335 | 0.059229335  0.059229335  0.388067122 ]  
~ Normamps=265
~ kron=y 

New Linecode.BT_1/0 CO_TR_CO_TR_1/0_1 nphases=2
~ rmatrix = [ 0.46907  0.124597 | 0.124597  0.466211 ]  
~ xmatrix = [ 0.46907  0.124597 | 0.124597  0.466211 ]  
~ Normamps=230
~ kron=y 

New Linecode.BT_1/0 CO_TR_CO_TR_1/0_3 nphases=2
~ rmatrix = [ 0.388067122  0.059229335  0.059229335 | 0.059229335  0.388067122  0.059229335 | 0.059229335  0.059229335  0.388067122 ]  
~ xmatrix = [ 0.388067122  0.059229335  0.059229335 | 0.059229335  0.388067122  0.059229335 | 0.059229335  0.059229335  0.388067122 ]  
~ Normamps=265
~ kron=y 

New Linecode.BT_1/0 CO_TR_CO_TR_1/0_4 nphases=3
~ rmatrix = [ 0.387984172  0.059216675  0.059216675  0.059216675 | 0.059216675  0.387984172  0.059216675  0.059216675 | 0.059216675  0.059216675  0.387984172  0.059216675 | 0.059216675  0.059216675  0.059216675  0.387984172 ]  
~ xmatrix = [ 0.387984172  0.059216675  0.059216675  0.059216675 | 0.059216675  0.387984172  0.059216675  0.059216675 | 0.059216675  0.059216675  0.387984172  0.059216675 | 0.059216675  0.059216675  0.059216675  0.387984172 ]  
~ Normamps=230
~ kron=y 

New Linecode.BT_1/0 CO_TR_CO_TR_1/0_6 nphases=2
~ rmatrix = [ 0.402248  0.0592176 | 0.0592176  0.402248 ]  
~ xmatrix = [ 0.402248  0.0592176 | 0.0592176  0.402248 ]  
~ Normamps=230
~ kron=y 

New Linecode.BT_1/0 Cobre Trensado_CO_TR_1/0_1 nphases=2
~ rmatrix = [ 0.46907  0.124597 | 0.124597  0.466211 ]  
~ xmatrix = [ 0.46907  0.124597 | 0.124597  0.466211 ]  
~ Normamps=230
~ kron=y 

New Linecode.BT_123.3 AAAC_AAAC_123.3_1 nphases=2
~ rmatrix = [ 0.734611  0.170071 | 0.170071  0.730567 ]  
~ xmatrix = [ 0.734611  0.170071 | 0.170071  0.730567 ]  
~ Normamps=256
~ kron=y 

New Linecode.BT_123.3 AAAC_AAAC_123.3_3 nphases=2
~ rmatrix = [ 0.734611  0.170071 | 0.170071  0.730567 ]  
~ xmatrix = [ 0.734611  0.170071 | 0.170071  0.730567 ]  
~ Normamps=256
~ kron=y 

New Linecode.BT_123.3 AAAC_AAAC_123.3_4 nphases=3
~ rmatrix = [ 0.683157  0.122858  0.122858 | 0.122858  0.687631  0.122858 | 0.122858  0.122858  0.683157 ]  
~ xmatrix = [ 0.683157  0.122858  0.122858 | 0.122858  0.687631  0.122858 | 0.122858  0.122858  0.683157 ]  
~ Normamps=256
~ kron=y 

New Linecode.BT_123.3 AAAC_AAAC_195.7_1 nphases=2
~ rmatrix = [ 0.679262  0.115432 | 0.115432  0.676629 ]  
~ xmatrix = [ 0.679262  0.115432 | 0.115432  0.676629 ]  
~ Normamps=256
~ kron=y 

New Linecode.BT_123.3 AAAC_AAAC_246.9_1 nphases=2
~ rmatrix = [ 0.661025  0.097439 | 0.097439  0.658876 ]  
~ xmatrix = [ 0.661025  0.097439 | 0.097439  0.658876 ]  
~ Normamps=256
~ kron=y 

New Linecode.BT_123.3 AAAC_AAAC_77.4_1 nphases=2
~ rmatrix = [ 0.760017  0.195216 | 0.195216  0.755453 ]  
~ xmatrix = [ 0.760017  0.195216 | 0.195216  0.755453 ]  
~ Normamps=256
~ kron=y 

New Linecode.BT_123.3 AAAC_ACSR_123.3_1 nphases=2
~ rmatrix = [ 0.734611  0.170071 | 0.170071  0.730567 ]  
~ xmatrix = [ 0.734611  0.170071 | 0.170071  0.730567 ]  
~ Normamps=256
~ kron=y 

New Linecode.BT_123.3 AAAC_ACSR_123.3_3 nphases=2
~ rmatrix = [ 0.734611  0.170071 | 0.170071  0.730567 ]  
~ xmatrix = [ 0.734611  0.170071 | 0.170071  0.730567 ]  
~ Normamps=256
~ kron=y 

New Linecode.BT_123.3 AAAC_ACSR_2_1 nphases=2
~ rmatrix = [ 0.760017  0.195216 | 0.195216  0.755453 ]  
~ xmatrix = [ 0.760017  0.195216 | 0.195216  0.755453 ]  
~ Normamps=256
~ kron=y 

New Linecode.BT_123.3 ACSR_ACSR_77.4_1 nphases=2
~ rmatrix = [ 0.679262  0.115432 | 0.115432  0.676629 ]  
~ xmatrix = [ 0.679262  0.115432 | 0.115432  0.676629 ]  
~ Normamps=256
~ kron=y 

New Linecode.BT_123.3 CO_TR_CO_TR_1/0_1 nphases=2
~ rmatrix = [ 0.689715  0.12575 | 0.12575  0.686813 ]  
~ xmatrix = [ 0.689715  0.12575 | 0.12575  0.686813 ]  
~ Normamps=256
~ kron=y 

New Linecode.BT_2 AAAC_ACSR_2_1 nphases=2
~ rmatrix = [ 11519.0  0.194803 | 0.194803  114734.0 ]  
~ xmatrix = [ 11519.0  0.194803 | 0.194803  114734.0 ]  
~ Normamps=191
~ kron=y 

New Linecode.BT_2 ACSR_AAAC_123.3_1 nphases=2
~ rmatrix = [ 112691.0  0.170071 | 0.170071  112287.0 ]  
~ xmatrix = [ 112691.0  0.170071 | 0.170071  112287.0 ]  
~ Normamps=184
~ kron=y 

New Linecode.BT_2 ACSR_AAAC_77.4_1 nphases=2
~ rmatrix = [ 115232.0  0.195216 | 0.195216  114775.0 ]  
~ xmatrix = [ 115232.0  0.195216 | 0.195216  114775.0 ]  
~ Normamps=184
~ kron=y 

New Linecode.BT_2 ACSR_ACSR_2_1 nphases=2
~ rmatrix = [ 114356.0  0.186603 | 0.186603  113928.0 ]  
~ xmatrix = [ 114356.0  0.186603 | 0.186603  113928.0 ]  
~ Normamps=150
~ kron=y 

New Linecode.BT_2 ACSR_ACSR_2_3 nphases=2
~ rmatrix = [ 110893.0  0.05856  0.05856 | 0.05856  110893.0  0.05856 | 0.05856  0.05856  11551875.0 ]  
~ xmatrix = [ 110893.0  0.05856  0.05856 | 0.05856  110893.0  0.05856 | 0.05856  0.05856  11551875.0 ]  
~ Normamps=150
~ kron=y 

New Linecode.BT_2 ACSR_ACSR_2_4 nphases=3
~ rmatrix = [ 110273.0  0.05929  0.05929  0.05929 | 0.05929  110273.0  0.05929  0.05929 | 0.05929  0.05929  1161839.0  0.05929 | 0.05929  0.05929  0.05929  1161839.0 ]  
~ xmatrix = [ 110273.0  0.05929  0.05929  0.05929 | 0.05929  110273.0  0.05929  0.05929 | 0.05929  0.05929  1161839.0  0.05929 | 0.05929  0.05929  0.05929  1161839.0 ]  
~ Normamps=135
~ kron=y 

New Linecode.BT_2 ACSR_ACSR_6_1 nphases=2
~ rmatrix = [ 114356.0  0.186603 | 0.186603  113928.0 ]  
~ xmatrix = [ 114356.0  0.186603 | 0.186603  113928.0 ]  
~ Normamps=184
~ kron=y 

New Linecode.BT_2 ACSR_ACSR_6_3 nphases=2
~ rmatrix = [ 110893.0  0.05856  0.05856 | 0.05856  110893.0  0.05856 | 0.05856  0.05856  11551875.0 ]  
~ xmatrix = [ 110893.0  0.05856  0.05856 | 0.05856  110893.0  0.05856 | 0.05856  0.05856  11551875.0 ]  
~ Normamps=150
~ kron=y 

New Linecode.BT_2 ACSR_NE_NE_1 nphases=2
~ rmatrix = [ 114356.0  0.186603 | 0.186603  113928.0 ]  
~ xmatrix = [ 114356.0  0.186603 | 0.186603  113928.0 ]  
~ Normamps=150
~ kron=y 

New Linecode.BT_2 CO_SO_ACSR_2_6 nphases=2
~ rmatrix = [ 0.71224363  0.059229335  0.059229335 | 0.059229335  0.71224363  0.059229335 | 0.059229335  0.059229335  0.71224363 ]  
~ xmatrix = [ 0.71224363  0.059229335  0.059229335 | 0.059229335  0.71224363  0.059229335 | 0.059229335  0.059229335  0.71224363 ]  
~ Normamps=247
~ kron=y 

New Linecode.BT_2 CO_TR_CO_TR_1/0_1 nphases=2
~ rmatrix = [ 114356.0  0.186603 | 0.186603  113928.0 ]  
~ xmatrix = [ 114356.0  0.186603 | 0.186603  113928.0 ]  
~ Normamps=150
~ kron=y 

New Linecode.BT_2/0 ACSR_ACSR_2/0_1 nphases=2
~ rmatrix = [ 0.603787  0.1399 | 0.1399  0.600592 ]  
~ xmatrix = [ 0.603787  0.1399 | 0.1399  0.600592 ]  
~ Normamps=276
~ kron=y 

New Linecode.BT_4 ACSR_ACSR_4_1 nphases=2
~ rmatrix = [ 166587.0  0.187005 | 0.187005  166177.0 ]  
~ xmatrix = [ 166587.0  0.187005 | 0.187005  166177.0 ]  
~ Normamps=140
~ kron=y 

New Linecode.BT_4 ACSR_ACSR_4_3 nphases=2
~ rmatrix = [ 173947.0  0.05923  0.05923 | 0.05923  173947.0  0.05923 | 0.05923  0.05923  17590625.0 ]  
~ xmatrix = [ 173947.0  0.05923  0.05923 | 0.05923  173947.0  0.05923 | 0.05923  0.05923  17590625.0 ]  
~ Normamps=115
~ kron=y 

New Linecode.BT_6 AAAC_AAAC_123.3_3 nphases=2
~ rmatrix = [ 27160625.0  0.0595625  0.0595625 | 0.0595625  27160625.0  0.0595625 | 0.0595625  0.0595625  2719375.0 ]  
~ xmatrix = [ 27160625.0  0.0595625  0.0595625 | 0.0595625  27160625.0  0.0595625 | 0.0595625  0.0595625  2719375.0 ]  
~ Normamps=85
~ kron=y 

New Linecode.BT_6 AAAC_AAAC_123.3_6 nphases=2
~ rmatrix = [ 27160625.0  0.0595625  0.0595625 | 0.0595625  27160625.0  0.0595625 | 0.0595625  0.0595625  2719375.0 ]  
~ xmatrix = [ 27160625.0  0.0595625  0.0595625 | 0.0595625  27160625.0  0.0595625 | 0.0595625  0.0595625  2719375.0 ]  
~ Normamps=85
~ kron=y 

New Linecode.BT_6 AAAC_AAAC_6_3 nphases=2
~ rmatrix = [ 27160625.0  0.0595625  0.0595625 | 0.0595625  27160625.0  0.0595625 | 0.0595625  0.0595625  2719375.0 ]  
~ xmatrix = [ 27160625.0  0.0595625  0.0595625 | 0.0595625  27160625.0  0.0595625 | 0.0595625  0.0595625  2719375.0 ]  
~ Normamps=85
~ kron=y 

New Linecode.BT_6 AAAC_AAAC_6_6 nphases=2
~ rmatrix = [ 27160625.0  0.0595625  0.0595625 | 0.0595625  27160625.0  0.0595625 | 0.0595625  0.0595625  2719375.0 ]  
~ xmatrix = [ 27160625.0  0.0595625  0.0595625 | 0.0595625  27160625.0  0.0595625 | 0.0595625  0.0595625  2719375.0 ]  
~ Normamps=85
~ kron=y 

New Linecode.BT_6 AAAC_ACSR_2_3 nphases=2
~ rmatrix = [ 27160625.0  0.0595625  0.0595625 | 0.0595625  27160625.0  0.0595625 | 0.0595625  0.0595625  2719375.0 ]  
~ xmatrix = [ 27160625.0  0.0595625  0.0595625 | 0.0595625  27160625.0  0.0595625 | 0.0595625  0.0595625  2719375.0 ]  
~ Normamps=85
~ kron=y 

New Linecode.BT_6 AAAC_ACSR_2_6 nphases=2
~ rmatrix = [ 27160625.0  0.0595625  0.0595625 | 0.0595625  27160625.0  0.0595625 | 0.0595625  0.0595625  2719375.0 ]  
~ xmatrix = [ 27160625.0  0.0595625  0.0595625 | 0.0595625  27160625.0  0.0595625 | 0.0595625  0.0595625  2719375.0 ]  
~ Normamps=85
~ kron=y 

New Linecode.BT_6 AAAC_ACSR_6_3 nphases=2
~ rmatrix = [ 27160625.0  0.0595625  0.0595625 | 0.0595625  27160625.0  0.0595625 | 0.0595625  0.0595625  2719375.0 ]  
~ xmatrix = [ 27160625.0  0.0595625  0.0595625 | 0.0595625  27160625.0  0.0595625 | 0.0595625  0.0595625  2719375.0 ]  
~ Normamps=85
~ kron=y 

New Linecode.BT_6 AAAC_ACSR_6_6 nphases=2
~ rmatrix = [ 27160625.0  0.0595625  0.0595625 | 0.0595625  27160625.0  0.0595625 | 0.0595625  0.0595625  2719375.0 ]  
~ xmatrix = [ 27160625.0  0.0595625  0.0595625 | 0.0595625  27160625.0  0.0595625 | 0.0595625  0.0595625  2719375.0 ]  
~ Normamps=85
~ kron=y 

New Linecode.BT_6 AAAC_CO_TR_1/0_6 nphases=2
~ rmatrix = [ 27160625.0  0.0595625  0.0595625 | 0.0595625  27160625.0  0.0595625 | 0.0595625  0.0595625  2719375.0 ]  
~ xmatrix = [ 27160625.0  0.0595625  0.0595625 | 0.0595625  27160625.0  0.0595625 | 0.0595625  0.0595625  2719375.0 ]  
~ Normamps=110
~ kron=y 

New Linecode.BT_6 ACSR_AAAC_123.3_3 nphases=2
~ rmatrix = [ 27160625.0  0.0595625  0.0595625 | 0.0595625  27160625.0  0.0595625 | 0.0595625  0.0595625  2719375.0 ]  
~ xmatrix = [ 27160625.0  0.0595625  0.0595625 | 0.0595625  27160625.0  0.0595625 | 0.0595625  0.0595625  2719375.0 ]  
~ Normamps=85
~ kron=y 

New Linecode.BT_6 ACSR_AAAC_6_3 nphases=2
~ rmatrix = [ 27160625.0  0.0595625  0.0595625 | 0.0595625  27160625.0  0.0595625 | 0.0595625  0.0595625  2719375.0 ]  
~ xmatrix = [ 27160625.0  0.0595625  0.0595625 | 0.0595625  27160625.0  0.0595625 | 0.0595625  0.0595625  2719375.0 ]  
~ Normamps=85
~ kron=y 

New Linecode.BT_6 ACSR_ACSR_1/0_1 nphases=2
~ rmatrix = [ 243266.0  0.16622 | 0.16622  242933.0 ]  
~ xmatrix = [ 243266.0  0.16622 | 0.16622  242933.0 ]  
~ Normamps=105
~ kron=y 

New Linecode.BT_6 ACSR_ACSR_1/0_3 nphases=2
~ rmatrix = [ 27160625.0  0.0595625  0.0595625 | 0.0595625  27160625.0  0.0595625 | 0.0595625  0.0595625  2719375.0 ]  
~ xmatrix = [ 27160625.0  0.0595625  0.0595625 | 0.0595625  27160625.0  0.0595625 | 0.0595625  0.0595625  2719375.0 ]  
~ Normamps=85
~ kron=y 

New Linecode.BT_6 ACSR_ACSR_2_1 nphases=2
~ rmatrix = [ 245352.0  0.186603 | 0.186603  244924.0 ]  
~ xmatrix = [ 245352.0  0.186603 | 0.186603  244924.0 ]  
~ Normamps=85
~ kron=y 

New Linecode.BT_6 ACSR_ACSR_2_3 nphases=2
~ rmatrix = [ 27160625.0  0.0595625  0.0595625 | 0.0595625  27160625.0  0.0595625 | 0.0595625  0.0595625  2719375.0 ]  
~ xmatrix = [ 27160625.0  0.0595625  0.0595625 | 0.0595625  27160625.0  0.0595625 | 0.0595625  0.0595625  2719375.0 ]  
~ Normamps=85
~ kron=y 

New Linecode.BT_6 ACSR_ACSR_2_4 nphases=3
~ rmatrix = [ 27160625.0  0.0595625  0.0595625  0.0595625 | 0.0595625  27160625.0  0.0595625  0.0595625 | 0.0595625  0.0595625  275375.0  0.0595625 | 0.0595625  0.0595625  0.0595625  275375.0 ]  
~ xmatrix = [ 27160625.0  0.0595625  0.0595625  0.0595625 | 0.0595625  27160625.0  0.0595625  0.0595625 | 0.0595625  0.0595625  275375.0  0.0595625 | 0.0595625  0.0595625  0.0595625  275375.0 ]  
~ Normamps=75
~ kron=y 

New Linecode.BT_6 ACSR_ACSR_2_6 nphases=2
~ rmatrix = [ 27160625.0  0.0595625  0.0595625 | 0.0595625  27160625.0  0.0595625 | 0.0595625  0.0595625  2719375.0 ]  
~ xmatrix = [ 27160625.0  0.0595625  0.0595625 | 0.0595625  27160625.0  0.0595625 | 0.0595625  0.0595625  2719375.0 ]  
~ Normamps=85
~ kron=y 

New Linecode.BT_6 ACSR_ACSR_6_1 nphases=2
~ rmatrix = [ 243266.0  0.16622 | 0.16622  242933.0 ]  
~ xmatrix = [ 243266.0  0.16622 | 0.16622  242933.0 ]  
~ Normamps=85
~ kron=y 

New Linecode.BT_6 ACSR_ACSR_6_2 nphases=2
~ rmatrix = [ 270029.0  0.0592176 | 0.0592176  270357.0 ]  
~ xmatrix = [ 270029.0  0.0592176 | 0.0592176  270357.0 ]  
~ Normamps=85
~ kron=y 

New Linecode.BT_6 ACSR_ACSR_6_3 nphases=2
~ rmatrix = [ 27160625.0  0.0595625  0.0595625 | 0.0595625  27160625.0  0.0595625 | 0.0595625  0.0595625  2719375.0 ]  
~ xmatrix = [ 27160625.0  0.0595625  0.0595625 | 0.0595625  27160625.0  0.0595625 | 0.0595625  0.0595625  2719375.0 ]  
~ Normamps=85
~ kron=y 

New Linecode.BT_6 ACSR_ACSR_6_4 nphases=3
~ rmatrix = [ 27160625.0  0.0595625  0.0595625  0.0595625 | 0.0595625  27160625.0  0.0595625  0.0595625 | 0.0595625  0.0595625  275375.0  0.0595625 | 0.0595625  0.0595625  0.0595625  275375.0 ]  
~ xmatrix = [ 27160625.0  0.0595625  0.0595625  0.0595625 | 0.0595625  27160625.0  0.0595625  0.0595625 | 0.0595625  0.0595625  275375.0  0.0595625 | 0.0595625  0.0595625  0.0595625  275375.0 ]  
~ Normamps=75
~ kron=y 

New Linecode.BT_6 ACSR_ACSR_6_6 nphases=2
~ rmatrix = [ 270029.0  0.0592176 | 0.0592176  270357.0 ]  
~ xmatrix = [ 270029.0  0.0592176 | 0.0592176  270357.0 ]  
~ Normamps=85
~ kron=y 

New Linecode.BT_6 ACSR_ACSR_8_6 nphases=2
~ rmatrix = [ 27160625.0  0.0595625  0.0595625 | 0.0595625  27160625.0  0.0595625 | 0.0595625  0.0595625  2719375.0 ]  
~ xmatrix = [ 27160625.0  0.0595625  0.0595625 | 0.0595625  27160625.0  0.0595625 | 0.0595625  0.0595625  2719375.0 ]  
~ Normamps=85
~ kron=y 

New Linecode.BT_6 ACSR_CO_TR_1/0_1 nphases=2
~ rmatrix = [ 239198.0  0.12575 | 0.12575  238907.0 ]  
~ xmatrix = [ 239198.0  0.12575 | 0.12575  238907.0 ]  
~ Normamps=85
~ kron=y 

New Linecode.BT_6 ACSR_CO_TR_8_3 nphases=2
~ rmatrix = [ 27160625.0  0.0595625  0.0595625 | 0.0595625  27160625.0  0.0595625 | 0.0595625  0.0595625  2719375.0 ]  
~ xmatrix = [ 27160625.0  0.0595625  0.0595625 | 0.0595625  27160625.0  0.0595625 | 0.0595625  0.0595625  2719375.0 ]  
~ Normamps=85
~ kron=y 

New Linecode.BT_6 CO_TR_ACSR_6_3 nphases=2
~ rmatrix = [ 1381370297.0  0.059216675  0.059216675 | 0.059216675  1381370297.0  0.059216675 | 0.059216675  0.059216675  1381370297.0 ]  
~ xmatrix = [ 1381370297.0  0.059216675  0.059216675 | 0.059216675  1381370297.0  0.059216675 | 0.059216675  0.059216675  1381370297.0 ]  
~ Normamps=85
~ kron=y 

New Linecode.BT_6 CO_TR_CO_TR_1/0_1 nphases=2
~ rmatrix = [ 150758.0  0.12575 | 0.12575  150467.0 ]  
~ xmatrix = [ 150758.0  0.12575 | 0.12575  150467.0 ]  
~ Normamps=125
~ kron=y 

New Linecode.BT_6 CO_TR_CO_TR_6_6 nphases=2
~ rmatrix = [ 1381370297.0  0.059216675  0.059216675 | 0.059216675  1381370297.0  0.059216675 | 0.059216675  0.059216675  1381370297.0 ]  
~ xmatrix = [ 1381370297.0  0.059216675  0.059216675 | 0.059216675  1381370297.0  0.059216675 | 0.059216675  0.059216675  1381370297.0 ]  
~ Normamps=95
~ kron=y 

New Linecode.BT_77.4 AAAC_AAAC_77.4_1 nphases=2
~ rmatrix = [ 109682.0  0.195216 | 0.195216  109225.0 ]  
~ xmatrix = [ 109682.0  0.195216 | 0.195216  109225.0 ]  
~ Normamps=191
~ kron=y 

New Linecode.BT_8 ACSR_ACSR_8_6 nphases=2
~ rmatrix = [ 2.43  0.059223 | 0.059223  2.43 ]  
~ xmatrix = [ 2.43  0.059223 | 0.059223  2.43 ]  
~ Normamps=85
~ kron=y 

New Linecode.BT_8 CO_TR_CO_TR_8_3 nphases=2
~ rmatrix = [ 242921.0  0.059229  0.059229 | 0.059229  242921.0  0.059229 | 0.059229  0.059229  242921.0 ]  
~ xmatrix = [ 242921.0  0.059229  0.059229 | 0.059229  242921.0  0.059229 | 0.059229  0.059229  242921.0 ]  
~ Normamps=85
~ kron=y 

New Linecode.BT_8 CO_TR_CO_TR_8_6 nphases=2
~ rmatrix = [ 230622.0  0.0592176 | 0.0592176  230622.0 ]  
~ xmatrix = [ 230622.0  0.0592176 | 0.0592176  230622.0 ]  
~ Normamps=45
~ kron=y 

New Linecode.BT_SUB_ABC:_250 COBRE_RHH_COBRE_250 nphases=3
~ rmatrix = [ 0.5127883  0.1533377  0.1533377  0.1533377 | 0.1533377  0.5127883  0.1533377  0.1533377 | 0.1533377  0.1533377  0.5127883  0.1533377 | 0.1533377  0.1533377  0.1533377  0.5127883 ]  
~ xmatrix = [ 0.5127883  0.1533377  0.1533377  0.1533377 | 0.1533377  0.5127883  0.1533377  0.1533377 | 0.1533377  0.1533377  0.5127883  0.1533377 | 0.1533377  0.1533377  0.1533377  0.5127883 ]  
~ Normamps=290
~ kron=y 

New Linecode.BT_SUB_ABC:_250 COBRERHH_COBRE_250 nphases=3
~ rmatrix = [ 0.5127883  0.1533377  0.1533377  0.1533377 | 0.1533377  0.5127883  0.1533377  0.1533377 | 0.1533377  0.1533377  0.5127883  0.1533377 | 0.1533377  0.1533377  0.1533377  0.5127883 ]  
~ xmatrix = [ 0.5127883  0.1533377  0.1533377  0.1533377 | 0.1533377  0.5127883  0.1533377  0.1533377 | 0.1533377  0.1533377  0.5127883  0.1533377 | 0.1533377  0.1533377  0.1533377  0.5127883 ]  
~ Normamps=290
~ kron=y 

New Linecode.BT_SUBA: _1/0 COBRE RHH_1/0 nphases=2
~ rmatrix = [ 0.388004972  0.059229335  0.059229335 | 0.059229335  0.388004972  0.059229335 | 0.059229335  0.059229335  0.388004972 ]  
~ xmatrix = [ 0.388004972  0.059229335  0.059229335 | 0.059229335  0.388004972  0.059229335 | 0.059229335  0.059229335  0.388004972 ]  
~ Normamps=170
~ kron=y 

New Linecode.BT_SUBA: _2 COBRE RHH_2 nphases=2
~ rmatrix = [ 0.582224807  0.059216675  0.059216675 | 0.059216675  0.582224807  0.059216675 | 0.059216675  0.059216675  0.582224807 ]  
~ xmatrix = [ 0.582224807  0.059216675  0.059216675 | 0.059216675  0.582224807  0.059216675 | 0.059216675  0.059216675  0.582224807 ]  
~ Normamps=130
~ kron=y 

New Linecode.BT_SUBA: _250 COBRE RHH_250 nphases=2
~ rmatrix = [ 0.198030999  0.059216675  0.059216675 | 0.059216675  0.198030999  0.059216675 | 0.059216675  0.059216675  0.198030999 ]  
~ xmatrix = [ 0.198030999  0.059216675  0.059216675 | 0.059216675  0.198030999  0.059216675 | 0.059216675  0.059216675  0.198030999 ]  
~ Normamps=290
~ kron=y 

New Linecode.BT_SUBABC: _1/0 COBRE RHH_1/0 nphases=3
~ rmatrix = [ 0.541430835  0.059229335  0.059229335  0.059229335 | 0.059229335  0.541430835  0.059229335  0.059229335 | 0.059229335  0.059229335  0.541430835  0.059229335 | 0.059229335  0.059229335  0.059229335  0.541430835 ]  
~ xmatrix = [ 0.541430835  0.059229335  0.059229335  0.059229335 | 0.059229335  0.541430835  0.059229335  0.059229335 | 0.059229335  0.059229335  0.541430835  0.059229335 | 0.059229335  0.059229335  0.059229335  0.541430835 ]  
~ Normamps=150
~ kron=y 

New Linecode.BT_SUBABC: _2 COBRE RHH_2 nphases=3
~ rmatrix = [ 0.582349285  0.059229335  0.059229335  0.059229335 | 0.059229335  0.582349285  0.059229335  0.059229335 | 0.059229335  0.059229335  0.582349285  0.059229335 | 0.059229335  0.059229335  0.059229335  0.582349285 ]  
~ xmatrix = [ 0.582349285  0.059229335  0.059229335  0.059229335 | 0.059229335  0.582349285  0.059229335  0.059229335 | 0.059229335  0.059229335  0.582349285  0.059229335 | 0.059229335  0.059229335  0.059229335  0.582349285 ]  
~ Normamps=130
~ kron=y 

New Linecode.BT_SUBB: _1/0 COBRE RHH_1/0 nphases=2
~ rmatrix = [ 0.388004972  0.059229335  0.059229335 | 0.059229335  0.388004972  0.059229335 | 0.059229335  0.059229335  0.388004972 ]  
~ xmatrix = [ 0.388004972  0.059229335  0.059229335 | 0.059229335  0.388004972  0.059229335 | 0.059229335  0.059229335  0.388004972 ]  
~ Normamps=170
~ kron=y 

New Linecode.BT_SUBB: _2 COBRE RHH_2 nphases=2
~ rmatrix = [ 0.582224807  0.059216675  0.059216675 | 0.059216675  0.582224807  0.059216675 | 0.059216675  0.059216675  0.582224807 ]  
~ xmatrix = [ 0.582224807  0.059216675  0.059216675 | 0.059216675  0.582224807  0.059216675 | 0.059216675  0.059216675  0.582224807 ]  
~ Normamps=130
~ kron=y 

New Linecode.BT_SUBC: _1/0 COBRE RHH_1/0 nphases=2
~ rmatrix = [ 0.388004972  0.059229335  0.059229335 | 0.059229335  0.388004972  0.059229335 | 0.059229335  0.059229335  0.388004972 ]  
~ xmatrix = [ 0.388004972  0.059229335  0.059229335 | 0.059229335  0.388004972  0.059229335 | 0.059229335  0.059229335  0.388004972 ]  
~ Normamps=170
~ kron=y 

New Linecode.BT_SUBC: _2 COBRE RHH_2 nphases=2
~ rmatrix = [ 0.582224807  0.059216675  0.059216675 | 0.059216675  0.582224807  0.059216675 | 0.059216675  0.059216675  0.582224807 ]  
~ xmatrix = [ 0.582224807  0.059216675  0.059216675 | 0.059216675  0.582224807  0.059216675 | 0.059216675  0.059216675  0.582224807 ]  
~ Normamps=130
~ kron=y 

New Linecode.MT_A: 1/0 AAAC_AAAC_1/0_NT_NT_7_N nphases=1
~ rmatrix = [ 0.706564 ]  
~ xmatrix = [ 0.706564 ]  
~ Normamps=256
~ kron=y 

New Linecode.MT_A: 1/0 AAAC_AAAC_123.3_NT_NT_7_N nphases=1
~ rmatrix = [ 0.694847 ]  
~ xmatrix = [ 0.694847 ]  
~ Normamps=256
~ kron=y 

New Linecode.MT_A: 1/0 AAAC_AAAC_2_NT_NT_7_N nphases=1
~ rmatrix = [ 0.710078 ]  
~ xmatrix = [ 0.710078 ]  
~ Normamps=256
~ kron=y 

New Linecode.MT_A: 1/0 AAAC_ACSR_2_NT_NT_7_N nphases=1
~ rmatrix = [ 0.706564 ]  
~ xmatrix = [ 0.706564 ]  
~ Normamps=256
~ kron=y 

New Linecode.MT_A: 1/0 AAAC_ACSR_2_NT_NT_7_Y nphases=1
~ rmatrix = [ 0.706564 ]  
~ xmatrix = [ 0.706564 ]  
~ Normamps=256
~ kron=y 

New Linecode.MT_A: 1/0 AAAC_NT_NT_NT_NT_7_N nphases=1
~ rmatrix = [ 0.706564 ]  
~ xmatrix = [ 0.706564 ]  
~ Normamps=256
~ kron=y 

New Linecode.MT_A: 1/0 AAAC_NT_NT_NT_NT_7_Y nphases=1
~ rmatrix = [ 0.706564 ]  
~ xmatrix = [ 0.706564 ]  
~ Normamps=256
~ kron=y 

New Linecode.MT_A: 1/0 AAAC_NT_NT_NT_NT_NE_N nphases=1
~ rmatrix = [ 0.706564 ]  
~ xmatrix = [ 0.706564 ]  
~ Normamps=256
~ kron=y 

New Linecode.MT_A: 1/0 ACSR_AAAC_123.3_NT_NT_7_N nphases=1
~ rmatrix = [ 0.68338 ]  
~ xmatrix = [ 0.68338 ]  
~ Normamps=242
~ kron=y 

New Linecode.MT_A: 1/0 ACSR_AAAC_123.3_NT_NT_7_Y nphases=1
~ rmatrix = [ 0.68338 ]  
~ xmatrix = [ 0.68338 ]  
~ Normamps=242
~ kron=y 

New Linecode.MT_A: 1/0 ACSR_AAAC_2_NT_NT_7_N nphases=1
~ rmatrix = [ 0.68338 ]  
~ xmatrix = [ 0.68338 ]  
~ Normamps=242
~ kron=y 

New Linecode.MT_A: 1/0 ACSR_ACSR_1/0_NT_NT_7_N nphases=1
~ rmatrix = [ 0.677772 ]  
~ xmatrix = [ 0.677772 ]  
~ Normamps=242
~ kron=y 

New Linecode.MT_A: 1/0 ACSR_ACSR_1/0_NT_NT_7_Y nphases=1
~ rmatrix = [ 0.677772 ]  
~ xmatrix = [ 0.677772 ]  
~ Normamps=242
~ kron=y 

New Linecode.MT_A: 1/0 ACSR_ACSR_2_NT_NT_7_N nphases=1
~ rmatrix = [ 0.706564 ]  
~ xmatrix = [ 0.706564 ]  
~ Normamps=242
~ kron=y 

New Linecode.MT_A: 1/0 ACSR_ACSR_2_NT_NT_7_Y nphases=1
~ rmatrix = [ 0.706564 ]  
~ xmatrix = [ 0.706564 ]  
~ Normamps=242
~ kron=y 

New Linecode.MT_A: 1/0 ACSR_NT_NT_NT_NT_7_N nphases=1
~ rmatrix = [ 0.706564 ]  
~ xmatrix = [ 0.706564 ]  
~ Normamps=242
~ kron=y 

New Linecode.MT_A: 1/0 ACSR_NT_NT_NT_NT_7_Y nphases=1
~ rmatrix = [ 0.706564 ]  
~ xmatrix = [ 0.706564 ]  
~ Normamps=242
~ kron=y 

New Linecode.MT_A: 1/0 ACSR_NT_NT_NT_NT_NE_N nphases=1
~ rmatrix = [ 0.706564 ]  
~ xmatrix = [ 0.706564 ]  
~ Normamps=242
~ kron=y 

New Linecode.MT_A: 123.3 AAAC_AAAC_123.3_NT_NT_7_N nphases=1
~ rmatrix = [ 0.665147 ]  
~ xmatrix = [ 0.665147 ]  
~ Normamps=256
~ kron=y 

New Linecode.MT_A: 123.3 AAAC_AAAC_123.3_NT_NT_7_Y nphases=1
~ rmatrix = [ 0.665147 ]  
~ xmatrix = [ 0.665147 ]  
~ Normamps=256
~ kron=y 

New Linecode.MT_A: 123.3 AAAC_AAAC_77.4_NT_NT_7_N nphases=1
~ rmatrix = [ 0.680663 ]  
~ xmatrix = [ 0.680663 ]  
~ Normamps=256
~ kron=y 

New Linecode.MT_A: 123.3 AAAC_AAAC_77.4_NT_NT_7_Y nphases=1
~ rmatrix = [ 0.680663 ]  
~ xmatrix = [ 0.680663 ]  
~ Normamps=256
~ kron=y 

New Linecode.MT_A: 123.3 AAAC_ACSR_1/0_NT_NT_7_Y nphases=1
~ rmatrix = [ 0.659539 ]  
~ xmatrix = [ 0.659539 ]  
~ Normamps=256
~ kron=y 

New Linecode.MT_A: 123.3 AAAC_ACSR_2_NT_NT_7_N nphases=1
~ rmatrix = [ 0.676864 ]  
~ xmatrix = [ 0.676864 ]  
~ Normamps=256
~ kron=y 

New Linecode.MT_A: 123.3 AAAC_NT_NT_NT_NT_7_Y nphases=1
~ rmatrix = [ 0.676864 ]  
~ xmatrix = [ 0.676864 ]  
~ Normamps=256
~ kron=y 

New Linecode.MT_A: 2 ACSR_ACSR_2_NT_NT_1_N nphases=1
~ rmatrix = [ 106916.0 ]  
~ xmatrix = [ 106916.0 ]  
~ Normamps=184
~ kron=y 

New Linecode.MT_A: 2 ACSR_ACSR_2_NT_NT_7_N nphases=1
~ rmatrix = [ 106916.0 ]  
~ xmatrix = [ 106916.0 ]  
~ Normamps=184
~ kron=y 

New Linecode.MT_A: 2 ACSR_ACSR_2_NT_NT_7_Y nphases=1
~ rmatrix = [ 106916.0 ]  
~ xmatrix = [ 106916.0 ]  
~ Normamps=184
~ kron=y 

New Linecode.MT_A: 6 AAAC_NT_NT_NT_NT_NE_N nphases=1
~ rmatrix = [ 1719701678.0  0.059229335 | 0.059229335  1676693599.0 ]  
~ xmatrix = [ 1719701678.0  0.059229335 | 0.059229335  1676693599.0 ]  
~ Normamps=85
~ kron=y 

New Linecode.MT_A: 6 CO_SO_NT_NT_NT_NT_NE_N nphases=1
~ rmatrix = [ 24292.0  0.0923 | 0.0923  24292.0 ]  
~ xmatrix = [ 24292.0  0.0923 | 0.0923  24292.0 ]  
~ Normamps=85
~ kron=y 

New Linecode.MT_A: 6 CO_TR_NT_NT_NT_NT_NE_N nphases=1
~ rmatrix = [ 149472.0 ]  
~ xmatrix = [ 149472.0 ]  
~ Normamps=409
~ kron=y 

New Linecode.MT_AB: 1/0 AAAC_NT_NT_AAAC_1/0_NE_N nphases=2
~ rmatrix = [ 0.639951  0.0592176 | 0.0592176  101402.0 ]  
~ xmatrix = [ 0.639951  0.0592176 | 0.0592176  101402.0 ]  
~ Normamps=256
~ kron=y 

New Linecode.MT_AB: 1/0 ACSR_ACSR_2_NT_NT_6_N nphases=2
~ rmatrix = [ 0.639951  0.0592176 | 0.0592176  101402.0 ]  
~ xmatrix = [ 0.639951  0.0592176 | 0.0592176  101402.0 ]  
~ Normamps=242
~ kron=y 

New Linecode.MT_AB: 6 CO_SO_NT_NT_NT_NT_NE_N nphases=2
~ rmatrix = [ 1381665631.0  0.059229335  0.059229335 | 0.059229335  1381665631.0  0.059229335 | 0.059229335  0.059229335  1381665631.0 ]  
~ xmatrix = [ 1381665631.0  0.059229335  0.059229335 | 0.059229335  1381665631.0  0.059229335 | 0.059229335  0.059229335  1381665631.0 ]  
~ Normamps=110
~ kron=y 

New Linecode.MT_ABC: 1/0 AAAC_AAAC_1/0_NT_NT_4_N nphases=3
~ rmatrix = [ 0.015905  0.0156016  0.015905 | 0.0156016  0.0153039  0.0156016 | 0.015905  0.0156016  0.015905 ]
~ xmatrix = [ 0.015905  0.0156016  0.015905 | 0.0156016  0.0153039  0.0156016 | 0.015905  0.0156016  0.015905 ]
~ Normamps=256
~ kron=y 

New Linecode.MT_ABC: 1/0 AAAC_AAAC_123.3_NT_NT_4_N nphases=3
~ rmatrix = [ 0.709697  0.11914  0.117497 | 0.11914  0.713025  0.11914 | 0.117497  0.11914  0.709697 ]  
~ xmatrix = [ 0.709697  0.11914  0.117497 | 0.11914  0.713025  0.11914 | 0.117497  0.11914  0.709697 ]  
~ Normamps=256
~ kron=y 

New Linecode.MT_ABC: 1/0 AAAC_AAAC_2_NT_NT_4_N nphases=3
~ rmatrix = [ 0.135038  0.136927  0.135038 | 0.136927  0.13886  0.136927 | 0.135038  0.136927  0.135038 ]
~ xmatrix = [ 0.135038  0.136927  0.135038 | 0.136927  0.13886  0.136927 | 0.135038  0.136927  0.135038 ]
~ Normamps=256
~ kron=y 

New Linecode.MT_ABC: 1/0 AAAC_ACSR_2_NT_NT_4_N nphases=3
~ rmatrix = [ 0.13048  0.132254  0.13048 | 0.132254  0.13407  0.132254 | 0.13048  0.132254  0.13048 ]
~ xmatrix = [ 0.13048  0.132254  0.13048 | 0.132254  0.13407  0.132254 | 0.13048  0.132254  0.13048 ]
~ Normamps=256
~ kron=y 

New Linecode.MT_ABC: 1/0 AAAC_NT_NT_NT_NT_4_Y nphases=3
~ rmatrix = [ 0.13048  0.132254  0.13048 | 0.132254  0.13407  0.132254 | 0.13048  0.132254  0.13048 ]
~ xmatrix = [ 0.13048  0.132254  0.13048 | 0.132254  0.13407  0.132254 | 0.13048  0.132254  0.13048 ]
~ Normamps=256
~ kron=y 

New Linecode.MT_ABC: 1/0 AAAC_NT_NT_NT_NT_NE_N nphases=3
~ rmatrix = [ 0.13048  0.132254  0.13048 | 0.132254  0.13407  0.132254 | 0.13048  0.132254  0.13048 ]
~ xmatrix = [ 0.13048  0.132254  0.13048 | 0.132254  0.13407  0.132254 | 0.13048  0.132254  0.13048 ]
~ Normamps=256
~ kron=y 

New Linecode.MT_ABC: 1/0 ACSR_AAAC_123.3_NT_NT_4_N nphases=3
~ rmatrix = [ 0.698231  0.11914  0.117497 | 0.11914  0.701559  0.11914 | 0.117497  0.11914  0.698231 ]  
~ xmatrix = [ 0.698231  0.11914  0.117497 | 0.11914  0.701559  0.11914 | 0.117497  0.11914  0.698231 ]  
~ Normamps=242
~ kron=y 

New Linecode.MT_ABC: 1/0 ACSR_AAAC_123.3_NT_NT_4_Y nphases=3
~ rmatrix = [ 0.698231  0.11914  0.117497 | 0.11914  0.701559  0.11914 | 0.117497  0.11914  0.698231 ]  
~ xmatrix = [ 0.698231  0.11914  0.117497 | 0.11914  0.701559  0.11914 | 0.117497  0.11914  0.698231 ]  
~ Normamps=242
~ kron=y 

New Linecode.MT_ABC: 1/0 ACSR_AAAC_195.7_NT_NT_4_N nphases=3
~ rmatrix = [ 0.662689  0.0829696  0.0819556 | 0.0829696  0.664749  0.0829696 | 0.0819556  0.0829696  0.662689 ]  
~ xmatrix = [ 0.662689  0.0829696  0.0819556 | 0.0829696  0.664749  0.0829696 | 0.0819556  0.0829696  0.662689 ]  
~ Normamps=242
~ kron=y 

New Linecode.MT_ABC: 1/0 ACSR_AAAC_195.7_NT_NT_4_Y nphases=3
~ rmatrix = [ 0.662689  0.0829696  0.0819556 | 0.0829696  0.664749  0.0829696 | 0.0819556  0.0829696  0.662689 ]  
~ xmatrix = [ 0.662689  0.0829696  0.0819556 | 0.0829696  0.664749  0.0829696 | 0.0819556  0.0829696  0.662689 ]  
~ Normamps=242
~ kron=y 

New Linecode.MT_ABC: 1/0 ACSR_ACSR_1/0_NT_NT_1_N nphases=3
~ rmatrix = [ 0.711213  0.132254  0.13048 | 0.132254  0.714803  0.132254 | 0.13048  0.132254  0.711213 ]  
~ xmatrix = [ 0.711213  0.132254  0.13048 | 0.132254  0.714803  0.132254 | 0.13048  0.132254  0.711213 ]  
~ Normamps=242
~ kron=y 

New Linecode.MT_ABC: 1/0 ACSR_ACSR_1/0_NT_NT_1_Y nphases=3
~ rmatrix = [ 0.711213  0.132254  0.13048 | 0.132254  0.714803  0.132254 | 0.13048  0.132254  0.711213 ]  
~ xmatrix = [ 0.711213  0.132254  0.13048 | 0.132254  0.714803  0.132254 | 0.13048  0.132254  0.711213 ]  
~ Normamps=242
~ kron=y 

New Linecode.MT_ABC: 1/0 ACSR_ACSR_1/0_NT_NT_4_N nphases=3
~ rmatrix = [ 0.691075  0.111815  0.110342 | 0.111815  0.694059  0.111815 | 0.110342  0.111815  0.691075 ]  
~ xmatrix = [ 0.691075  0.111815  0.110342 | 0.111815  0.694059  0.111815 | 0.110342  0.111815  0.691075 ]  
~ Normamps=242
~ kron=y 

New Linecode.MT_ABC: 1/0 ACSR_ACSR_1/0_NT_NT_4_Y nphases=3
~ rmatrix = [ 0.691075  0.111815  0.110342 | 0.111815  0.694059  0.111815 | 0.110342  0.111815  0.691075 ]  
~ xmatrix = [ 0.691075  0.111815  0.110342 | 0.111815  0.694059  0.111815 | 0.110342  0.111815  0.691075 ]  
~ Normamps=242
~ kron=y 

New Linecode.MT_ABC: 1/0 ACSR_ACSR_2_NT_NT_1_N nphases=3
~ rmatrix = [ 0.711213  0.132254  0.13048 | 0.132254  0.714803  0.13048 | 0.13048  0.13048  0.711213 ]  
~ xmatrix = [ 0.711213  0.132254  0.13048 | 0.132254  0.714803  0.13048 | 0.13048  0.13048  0.711213 ]  
~ Normamps=242
~ kron=y 

New Linecode.MT_ABC: 1/0 ACSR_ACSR_2_NT_NT_1_Y nphases=3
~ rmatrix = [ 0.711213  0.132254  0.13048 | 0.132254  0.714803  0.13048 | 0.13048  0.13048  0.711213 ]  
~ xmatrix = [ 0.711213  0.132254  0.13048 | 0.132254  0.714803  0.13048 | 0.13048  0.13048  0.711213 ]  
~ Normamps=242
~ kron=y 

New Linecode.MT_ABC: 1/0 ACSR_ACSR_2_NT_NT_4_N nphases=3
~ rmatrix = [ 0.711213  0.132254  0.13048 | 0.132254  0.714803  0.13048 | 0.13048  0.13048  0.711213 ]  
~ xmatrix = [ 0.711213  0.132254  0.13048 | 0.132254  0.714803  0.13048 | 0.13048  0.13048  0.711213 ]  
~ Normamps=242
~ kron=y 

New Linecode.MT_ABC: 1/0 ACSR_ACSR_2_NT_NT_4_Y nphases=3
~ rmatrix = [ 0.711213  0.132254  0.13048 | 0.132254  0.714803  0.13048 | 0.13048  0.13048  0.711213 ]  
~ xmatrix = [ 0.711213  0.132254  0.13048 | 0.132254  0.714803  0.13048 | 0.13048  0.13048  0.711213 ]  
~ Normamps=242
~ kron=y 

New Linecode.MT_ABC: 1/0 ACSR_NT_NT_AAAC_1/0_2_N nphases=3
~ rmatrix = [ 0.704286  0.125816  0.123553 | 0.125816  0.708886  0.125816 | 0.123553  0.125816  0.704286 ]  
~ xmatrix = [ 0.704286  0.125816  0.123553 | 0.125816  0.708886  0.125816 | 0.123553  0.125816  0.704286 ]  
~ Normamps=242
~ kron=y 

New Linecode.MT_ABC: 1/0 ACSR_NT_NT_AAAC_195.7_2_N nphases=3
~ rmatrix = [ 0.664644  0.0852762  0.0839106 | 0.0852762  0.667429  0.0852762 | 0.0839106  0.0852762  0.664644 ]  
~ xmatrix = [ 0.664644  0.0852762  0.0839106 | 0.0852762  0.667429  0.0852762 | 0.0839106  0.0852762  0.664644 ]  
~ Normamps=242
~ kron=y 

New Linecode.MT_ABC: 1/0 ACSR_NT_NT_AAAC_195.7_2_Y nphases=3
~ rmatrix = [ 0.664644  0.0852762  0.0839106 | 0.0852762  0.667429  0.0852762 | 0.0839106  0.0852762  0.664644 ]  
~ xmatrix = [ 0.664644  0.0852762  0.0839106 | 0.0852762  0.667429  0.0852762 | 0.0839106  0.0852762  0.664644 ]  
~ Normamps=242
~ kron=y 

New Linecode.MT_ABC: 1/0 ACSR_NT_NT_ACSR_1/0_2_N nphases=3
~ rmatrix = [ 0.0176121  0.0172254  0.0176121 | 0.0172254  0.0168472  0.0172254 | 0.0176121  0.0172254  0.0176121 ]
~ xmatrix = [ 0.0176121  0.0172254  0.0176121 | 0.0172254  0.0168472  0.0172254 | 0.0176121  0.0172254  0.0176121 ]
~ Normamps=242
~ kron=y 

New Linecode.MT_ABC: 1/0 ACSR_NT_NT_ACSR_2_2_N nphases=3
~ rmatrix = [ 0.711213  0.132254  0.13048 | 0.132254  0.714803  0.132254 | 0.13048  0.132254  0.711213 ]  
~ xmatrix = [ 0.711213  0.132254  0.13048 | 0.132254  0.714803  0.132254 | 0.13048  0.132254  0.711213 ]  
~ Normamps=242
~ kron=y 

New Linecode.MT_ABC: 1/0 ACSR_NT_NT_NT_NT_4_N nphases=3
~ rmatrix = [ 0.015905  0.0156016  0.015905 | 0.0156016  0.0153039  0.0156016 | 0.015905  0.0156016  0.015905 ]
~ xmatrix = [ 0.015905  0.0156016  0.015905 | 0.0156016  0.0153039  0.0156016 | 0.015905  0.0156016  0.015905 ]
~ Normamps=242
~ kron=y 

New Linecode.MT_ABC: 1/0 ACSR_NT_NT_NT_NT_4_Y nphases=3
~ rmatrix = [ 0.015905  0.0156016  0.015905 | 0.0156016  0.0153039  0.0156016 | 0.015905  0.0156016  0.015905 ]
~ xmatrix = [ 0.015905  0.0156016  0.015905 | 0.0156016  0.0153039  0.0156016 | 0.015905  0.0156016  0.015905 ]
~ Normamps=242
~ kron=y 

New Linecode.MT_ABC: 1/0 ACSR_NT_NT_NT_NT_NE_N nphases=3
~ rmatrix = [ 0.015905  0.0156016  0.015905 | 0.0156016  0.0153039  0.0156016 | 0.015905  0.0156016  0.015905 ]
~ xmatrix = [ 0.015905  0.0156016  0.015905 | 0.0156016  0.0153039  0.0156016 | 0.015905  0.0156016  0.015905 ]
~ Normamps=242
~ kron=y 

New Linecode.MT_ABC: 123.3 AAAC_AAAC_1/0_NT_NT_4_N nphases=3
~ rmatrix = [ 0.682805  0.121994  0.120305 | 0.121994  0.686226  0.121994 | 0.120305  0.121994  0.682805 ]  
~ xmatrix = [ 0.682805  0.121994  0.120305 | 0.121994  0.686226  0.121994 | 0.120305  0.121994  0.682805 ]  
~ Normamps=256
~ kron=y 

New Linecode.MT_ABC: 123.3 AAAC_AAAC_1/0_NT_NT_4_Y nphases=3
~ rmatrix = [ 0.682805  0.121994  0.120305 | 0.121994  0.686226  0.121994 | 0.120305  0.121994  0.682805 ]  
~ xmatrix = [ 0.682805  0.121994  0.120305 | 0.121994  0.686226  0.121994 | 0.120305  0.121994  0.682805 ]  
~ Normamps=256
~ kron=y 

New Linecode.MT_ABC: 123.3 AAAC_AAAC_123.3_NT_NT_1_N nphases=3
~ rmatrix = [ 0.679997  0.11914  0.117497 | 0.11914  0.683325  0.11914 | 0.117497  0.11914  0.679997 ]  
~ xmatrix = [ 0.679997  0.11914  0.117497 | 0.11914  0.683325  0.11914 | 0.117497  0.11914  0.679997 ]  
~ Normamps=256
~ kron=y 

New Linecode.MT_ABC: 123.3 AAAC_AAAC_123.3_NT_NT_1_Y nphases=3
~ rmatrix = [ 0.679997  0.11914  0.117497 | 0.11914  0.683325  0.11914 | 0.117497  0.11914  0.679997 ]  
~ xmatrix = [ 0.679997  0.11914  0.117497 | 0.11914  0.683325  0.11914 | 0.117497  0.11914  0.679997 ]  
~ Normamps=256
~ kron=y 

New Linecode.MT_ABC: 123.3 AAAC_AAAC_123.3_NT_NT_2_N nphases=3
~ rmatrix = [ 0.679997  0.11914  0.117497 | 0.11914  0.683325  0.11914 | 0.117497  0.11914  0.679997 ]  
~ xmatrix = [ 0.679997  0.11914  0.117497 | 0.11914  0.683325  0.11914 | 0.117497  0.11914  0.679997 ]  
~ Normamps=256
~ kron=y 

New Linecode.MT_ABC: 123.3 AAAC_AAAC_123.3_NT_NT_4_N nphases=3
~ rmatrix = [ 0.679997  0.11914  0.117497 | 0.11914  0.683325  0.11914 | 0.117497  0.11914  0.679997 ]  
~ xmatrix = [ 0.679997  0.11914  0.117497 | 0.11914  0.683325  0.11914 | 0.117497  0.11914  0.679997 ]  
~ Normamps=256
~ kron=y 

New Linecode.MT_ABC: 123.3 AAAC_AAAC_123.3_NT_NT_4_Y nphases=3
~ rmatrix = [ 0.679997  0.11914  0.117497 | 0.11914  0.683325  0.11914 | 0.117497  0.11914  0.679997 ]  
~ xmatrix = [ 0.679997  0.11914  0.117497 | 0.11914  0.683325  0.11914 | 0.117497  0.11914  0.679997 ]  
~ Normamps=256
~ kron=y 

New Linecode.MT_ABC: 123.3 AAAC_AAAC_77.4_NT_NT_4_N nphases=3
~ rmatrix = [ 0.697856  0.137248  0.135356 | 0.137248  0.701685  0.137248 | 0.135356  0.137248  0.697856 ]  
~ xmatrix = [ 0.697856  0.137248  0.135356 | 0.137248  0.701685  0.137248 | 0.135356  0.137248  0.697856 ]  
~ Normamps=256
~ kron=y 

New Linecode.MT_ABC: 123.3 AAAC_AAAC_77.4_NT_NT_4_Y nphases=3
~ rmatrix = [ 0.697856  0.137248  0.135356 | 0.137248  0.701685  0.137248 | 0.135356  0.137248  0.697856 ]  
~ xmatrix = [ 0.697856  0.137248  0.135356 | 0.137248  0.701685  0.137248 | 0.135356  0.137248  0.697856 ]  
~ Normamps=256
~ kron=y 

New Linecode.MT_ABC: 123.3 AAAC_NT_NT_AAAC_123.3_2_N nphases=3
~ rmatrix = [ 0.683157  0.122858  0.122858 | 0.122858  0.687631  0.122858 | 0.122858  0.122858  0.683157 ]  
~ xmatrix = [ 0.683157  0.122858  0.122858 | 0.122858  0.687631  0.122858 | 0.122858  0.122858  0.683157 ]  
~ Normamps=256
~ kron=y 

New Linecode.MT_ABC: 123.3 AAAC_NT_NT_AAAC_123.3_2_Y nphases=3
~ rmatrix = [ 0.683157  0.122858  0.122858 | 0.122858  0.687631  0.122858 | 0.122858  0.122858  0.683157 ]  
~ xmatrix = [ 0.683157  0.122858  0.122858 | 0.122858  0.687631  0.122858 | 0.122858  0.122858  0.683157 ]  
~ Normamps=256
~ kron=y 

New Linecode.MT_ABC: 123.3 AAAC_NT_NT_AAAC_123.3_NE_N nphases=3
~ rmatrix = [ 0.683157  0.122858  0.122858 | 0.122858  0.687631  0.122858 | 0.122858  0.122858  0.683157 ]  
~ xmatrix = [ 0.683157  0.122858  0.122858 | 0.122858  0.687631  0.122858 | 0.122858  0.122858  0.683157 ]  
~ Normamps=256
~ kron=y 

New Linecode.MT_ABC: 123.3 AAAC_NT_NT_AAAC_123.3_NE_Y nphases=3
~ rmatrix = [ 0.683157  0.122858  0.122858 | 0.122858  0.687631  0.122858 | 0.122858  0.122858  0.683157 ]  
~ xmatrix = [ 0.683157  0.122858  0.122858 | 0.122858  0.687631  0.122858 | 0.122858  0.122858  0.683157 ]  
~ Normamps=256
~ kron=y 

New Linecode.MT_ABC: 123.3 AAAC_NT_NT_NT_NT_1_Y nphases=3
~ rmatrix = [ 0.679997  0.11914  0.117497 | 0.11914  0.683325  0.11914 | 0.117497  0.11914  0.679997 ]  
~ xmatrix = [ 0.679997  0.11914  0.117497 | 0.11914  0.683325  0.11914 | 0.117497  0.11914  0.679997 ]  
~ Normamps=256
~ kron=y 

New Linecode.MT_ABC: 123.3 AAAC_NT_NT_NT_NT_4_Y nphases=3
~ rmatrix = [ 0.697856  0.137248  0.135356 | 0.137248  0.701685  0.137248 | 0.135356  0.137248  0.697856 ]  
~ xmatrix = [ 0.697856  0.137248  0.135356 | 0.137248  0.701685  0.137248 | 0.135356  0.137248  0.697856 ]  
~ Normamps=256
~ kron=y 

New Linecode.MT_ABC: 195.7 AAAC_AAAC_123.3_NT_NT_4_N nphases=3
~ rmatrix = [ 0.415497  0.11914  0.117497 | 0.11914  0.418825  0.11914 | 0.117497  0.11914  0.415497 ]  
~ xmatrix = [ 0.415497  0.11914  0.117497 | 0.11914  0.418825  0.11914 | 0.117497  0.11914  0.415497 ]  
~ Normamps=342
~ kron=y 

New Linecode.MT_ABC: 195.7 AAAC_AAAC_123.3_NT_NT_4_Y nphases=3
~ rmatrix = [ 0.415497  0.11914  0.117497 | 0.11914  0.418825  0.11914 | 0.117497  0.11914  0.415497 ]  
~ xmatrix = [ 0.415497  0.11914  0.117497 | 0.11914  0.418825  0.11914 | 0.117497  0.11914  0.415497 ]  
~ Normamps=342
~ kron=y 

New Linecode.MT_ABC: 195.7 AAAC_ACSR_1/0_NT_NT_1_N nphases=3
~ rmatrix = [ 0.408342  0.111815  0.110342 | 0.111815  0.411326  0.111815 | 0.110342  0.111815  0.408342 ]  
~ xmatrix = [ 0.408342  0.111815  0.110342 | 0.111815  0.411326  0.111815 | 0.110342  0.111815  0.408342 ]  
~ Normamps=342
~ kron=y 

New Linecode.MT_ABC: 195.7 AAAC_ACSR_1/0_NT_NT_1_Y nphases=3
~ rmatrix = [ 0.408342  0.111815  0.110342 | 0.111815  0.411326  0.111815 | 0.110342  0.111815  0.408342 ]  
~ xmatrix = [ 0.408342  0.111815  0.110342 | 0.111815  0.411326  0.111815 | 0.110342  0.111815  0.408342 ]  
~ Normamps=342
~ kron=y 

New Linecode.MT_ABC: 195.7 AAAC_ACSR_1/0_NT_NT_4_N nphases=3
~ rmatrix = [ 0.408342  0.111815  0.110342 | 0.111815  0.411326  0.111815 | 0.110342  0.111815  0.408342 ]  
~ xmatrix = [ 0.408342  0.111815  0.110342 | 0.111815  0.411326  0.111815 | 0.110342  0.111815  0.408342 ]  
~ Normamps=342
~ kron=y 

New Linecode.MT_ABC: 195.7 AAAC_ACSR_1/0_NT_NT_4_Y nphases=3
~ rmatrix = [ 0.408342  0.111815  0.110342 | 0.111815  0.411326  0.111815 | 0.110342  0.111815  0.408342 ]  
~ xmatrix = [ 0.408342  0.111815  0.110342 | 0.111815  0.411326  0.111815 | 0.110342  0.111815  0.408342 ]  
~ Normamps=342
~ kron=y 

New Linecode.MT_ABC: 195.7 AAAC_ACSR_2_NT_NT_1_N nphases=3
~ rmatrix = [ 0.42848  0.132564  0.13048 | 0.132564  0.432707  0.132564 | 0.13048  0.132564  0.42848 ]  
~ xmatrix = [ 0.42848  0.132564  0.13048 | 0.132564  0.432707  0.132564 | 0.13048  0.132564  0.42848 ]  
~ Normamps=342
~ kron=y 

New Linecode.MT_ABC: 195.7 AAAC_ACSR_2_NT_NT_1_Y nphases=3
~ rmatrix = [ 0.42848  0.132564  0.13048 | 0.132564  0.432707  0.132564 | 0.13048  0.132564  0.42848 ]  
~ xmatrix = [ 0.42848  0.132564  0.13048 | 0.132564  0.432707  0.132564 | 0.13048  0.132564  0.42848 ]  
~ Normamps=342
~ kron=y 

New Linecode.MT_ABC: 2 ACSR_ACSR_2_NT_NT_1_N nphases=3
~ rmatrix = [ 108528.0  0.132254  0.13048 | 0.132254  108887.0  0.13048 | 0.13048  0.13048  108528.0 ]  
~ xmatrix = [ 108528.0  0.132254  0.13048 | 0.132254  108887.0  0.13048 | 0.13048  0.13048  108528.0 ]  
~ Normamps=184
~ kron=y 

New Linecode.MT_ABC: 2 ACSR_ACSR_2_NT_NT_4_N nphases=3
~ rmatrix = [ 108528.0  0.132254  0.13048 | 0.132254  108887.0  0.132254 | 0.13048  0.132254  108528.0 ]  
~ xmatrix = [ 108528.0  0.132254  0.13048 | 0.132254  108887.0  0.132254 | 0.13048  0.132254  108528.0 ]  
~ Normamps=184
~ kron=y 

New Linecode.MT_ABC: 2 ACSR_NT_NT_AAAC_1/0_2_N nphases=3
~ rmatrix = [ 0.970114  0.0149203  0.0153136 | 0.0149203  0.969337  0.0149203 | 0.0153136  0.0149203  0.970114 ]  
~ xmatrix = [ 0.970114  0.0149203  0.0153136 | 0.0149203  0.969337  0.0149203 | 0.0153136  0.0149203  0.970114 ]  
~ Normamps=184
~ kron=y 

New Linecode.MT_ABC: 246.9 AAAC_AAAC_1/0_NT_NT_1_N nphases=3
~ rmatrix = [ 0.356605  0.12229  0.120305 | 0.12229  0.360634  0.12229 | 0.120305  0.12229  0.356605 ]  
~ xmatrix = [ 0.356605  0.12229  0.120305 | 0.12229  0.360634  0.12229 | 0.120305  0.12229  0.356605 ]  
~ Normamps=342
~ kron=y 

New Linecode.MT_ABC: 246.9 AAAC_AAAC_1/0_NT_NT_1_Y nphases=3
~ rmatrix = [ 0.356605  0.12229  0.120305 | 0.12229  0.360634  0.12229 | 0.120305  0.12229  0.356605 ]  
~ xmatrix = [ 0.356605  0.12229  0.120305 | 0.12229  0.360634  0.12229 | 0.120305  0.12229  0.356605 ]  
~ Normamps=342
~ kron=y 

New Linecode.MT_ABC: 246.9 AAAC_AAAC_123.3_NT_NT_1_N nphases=3
~ rmatrix = [ 0.353797  0.119428  0.117497 | 0.119428  0.357717  0.119428 | 0.117497  0.119428  0.353797 ]  
~ xmatrix = [ 0.353797  0.119428  0.117497 | 0.119428  0.357717  0.119428 | 0.117497  0.119428  0.353797 ]  
~ Normamps=342
~ kron=y 

New Linecode.MT_ABC: 246.9 AAAC_AAAC_123.3_NT_NT_1_Y nphases=3
~ rmatrix = [ 0.353797  0.119428  0.117497 | 0.119428  0.357717  0.119428 | 0.117497  0.119428  0.353797 ]  
~ xmatrix = [ 0.353797  0.119428  0.117497 | 0.119428  0.357717  0.119428 | 0.117497  0.119428  0.353797 ]  
~ Normamps=342
~ kron=y 

New Linecode.MT_ABC: 246.9 AAAC_ACSR_1/0_NT_NT_1_N nphases=3
~ rmatrix = [ 0.346642  0.112073  0.110342 | 0.112073  0.350156  0.112073 | 0.110342  0.112073  0.346642 ]  
~ xmatrix = [ 0.346642  0.112073  0.110342 | 0.112073  0.350156  0.112073 | 0.110342  0.112073  0.346642 ]  
~ Normamps=342
~ kron=y 

New Linecode.MT_ABC: 246.9 AAAC_ACSR_1/0_NT_NT_1_Y nphases=3
~ rmatrix = [ 0.346642  0.112073  0.110342 | 0.112073  0.350156  0.112073 | 0.110342  0.112073  0.346642 ]  
~ xmatrix = [ 0.346642  0.112073  0.110342 | 0.112073  0.350156  0.112073 | 0.110342  0.112073  0.346642 ]  
~ Normamps=342
~ kron=y 

New Linecode.MT_ABC: 3/0 ACSR_AAAC_246.9_NT_NT_4_N nphases=3
~ rmatrix = [ 0.438778  0.0712759  0.0704748 | 0.0712759  0.440408  0.0712759 | 0.0704748  0.0712759  0.438778 ]  
~ xmatrix = [ 0.438778  0.0712759  0.0704748 | 0.0712759  0.440408  0.0712759 | 0.0704748  0.0712759  0.438778 ]  
~ Normamps=315
~ kron=y 

New Linecode.MT_ABC: 3/0 ACSR_AAAC_246.9_NT_NT_4_Y nphases=3
~ rmatrix = [ 0.438778  0.0712759  0.0704748 | 0.0712759  0.440408  0.0712759 | 0.0704748  0.0712759  0.438778 ]  
~ xmatrix = [ 0.438778  0.0712759  0.0704748 | 0.0712759  0.440408  0.0712759 | 0.0704748  0.0712759  0.438778 ]  
~ Normamps=315
~ kron=y 

New Linecode.MT_ABC: 3/0 ACSR_ACSR_1/0_NT_NT_1_N nphases=3
~ rmatrix = [ 0.478645  0.112073  0.110342  0.0 | 0.112073  0.4821  0.112073  0.0 | 0.110342  0.112073  0.478645  0.0 | 0.0  0.0  0.0  101402.0 ]  
~ xmatrix = [ 0.478645  0.112073  0.110342  0.0 | 0.112073  0.4821  0.112073  0.0 | 0.110342  0.112073  0.478645  0.0 | 0.0  0.0  0.0  101402.0 ]  
~ Normamps=315
~ kron=y 

New Linecode.MT_ABC: 3/0 ACSR_ACSR_1/0_NT_NT_1_Y nphases=3
~ rmatrix = [ 0.478645  0.112073  0.110342  0.0 | 0.112073  0.4821  0.112073  0.0 | 0.110342  0.112073  0.478645  0.0 | 0.0  0.0  0.0  101402.0 ]  
~ xmatrix = [ 0.478645  0.112073  0.110342  0.0 | 0.112073  0.4821  0.112073  0.0 | 0.110342  0.112073  0.478645  0.0 | 0.0  0.0  0.0  101402.0 ]  
~ Normamps=315
~ kron=y 

New Linecode.MT_ABC: 3/0 ACSR_ACSR_1/0_NT_NT_3_N nphases=3
~ rmatrix = [ 0.471561  0.10038  0.103258 | 0.10038  0.465973  0.10038 | 0.103258  0.10038  0.471561 ]  
~ xmatrix = [ 0.471561  0.10038  0.103258 | 0.10038  0.465973  0.10038 | 0.103258  0.10038  0.471561 ]  
~ Normamps=315
~ kron=y 

New Linecode.MT_ABC: 3/0 ACSR_ACSR_1/0_NT_NT_4_N nphases=3
~ rmatrix = [ 0.427521  0.111815  0.110342 | 0.111815  0.481629  0.111815 | 0.110342  0.111815  0.478645 ]  
~ xmatrix = [ 0.427521  0.111815  0.110342 | 0.111815  0.481629  0.111815 | 0.110342  0.111815  0.478645 ]  
~ Normamps=315
~ kron=y 

New Linecode.MT_ABC: 3/0 ACSR_ACSR_1/0_NT_NT_4_Y nphases=3
~ rmatrix = [ 0.427521  0.111815  0.110342 | 0.111815  0.481629  0.111815 | 0.110342  0.111815  0.478645 ]  
~ xmatrix = [ 0.427521  0.111815  0.110342 | 0.111815  0.481629  0.111815 | 0.110342  0.111815  0.478645 ]  
~ Normamps=315
~ kron=y 

New Linecode.MT_ABC: 3/0 ACSR_ACSR_2_NT_NT_1_N nphases=3
~ rmatrix = [ 0.498783  0.132564  0.13048 | 0.132564  0.50301  0.132564 | 0.13048  0.132564  0.498783 ]  
~ xmatrix = [ 0.498783  0.132564  0.13048 | 0.132564  0.50301  0.132564 | 0.13048  0.132564  0.498783 ]  
~ Normamps=315
...